data_sym_24_mc_13
_audit_creation_date              2014-09-12
_audit_creation_method            'Materials Studio'
_symmetry_space_group_name_H-M    'P1'
_symmetry_Int_Tables_number       1
_symmetry_cell_setting            triclinic
loop_
_symmetry_equiv_pos_as_xyz
  x,y,z
_cell_length_a                    40.0000
_cell_length_b                    40.0000
_cell_length_c                    40.0000
_cell_angle_alpha                 90.0000
_cell_angle_beta                  90.0000
_cell_angle_gamma                 90.0000
loop_
_atom_site_label
_atom_site_type_symbol
_atom_site_fract_x
_atom_site_fract_y
_atom_site_fract_z
_atom_site_U_iso_or_equiv
_atom_site_adp_type
_atom_site_occupancy
O1     O     0.03599   0.12044  -0.16742   0.00000  Uani   1.00
O2     O     0.03731   0.16017  -0.20736   0.00000  Uani   1.00
C3     C     0.04667   0.13473  -0.19188   0.00000  Uani   1.00
C4     C     0.07400   0.11463  -0.21249   0.00000  Uani   1.00
C5     C     0.08447   0.12709  -0.24034   0.00000  Uani   1.00
H6     H     0.07570   0.14721  -0.24882   0.18000  Uiso   1.00
O7     O    -0.03347  -0.11938  -0.16870   0.00000  Uani   1.00
O8     O    -0.03420  -0.15887  -0.20889   0.00000  Uani   1.00
C9     C    -0.04378  -0.13352  -0.19340   0.00000  Uani   1.00
C10    C    -0.07080  -0.11329  -0.21429   0.00000  Uani   1.00
C11    C    -0.08086  -0.12558  -0.24237   0.00000  Uani   1.00
H12    H    -0.07196  -0.14564  -0.25084   0.18000  Uiso   1.00
O13    O     0.16907   0.03412  -0.11866   0.00000  Uani   1.00
O14    O     0.20944   0.03500  -0.15797   0.00000  Uani   1.00
C15    C     0.19380   0.04454  -0.13270   0.00000  Uani   1.00
C16    C     0.21449   0.07165  -0.11238   0.00000  Uani   1.00
C17    C     0.24258   0.08181  -0.12455   0.00000  Uani   1.00
H18    H     0.25118   0.07294  -0.14457   0.18000  Uiso   1.00
O19    O    -0.16728  -0.03337  -0.12139   0.00000  Uani   1.00
O20    O    -0.20705  -0.03400  -0.16131   0.00000  Uani   1.00
C21    C    -0.19179  -0.04369  -0.13586   0.00000  Uani   1.00
C22    C    -0.21278  -0.07093  -0.11603   0.00000  Uani   1.00
C23    C    -0.24069  -0.08101  -0.12868   0.00000  Uani   1.00
H24    H    -0.24898  -0.07202  -0.14877   0.18000  Uiso   1.00
O25    O     0.12085   0.16776  -0.03289   0.00000  Uani   1.00
O26    O     0.16061   0.20770  -0.03336   0.00000  Uani   1.00
C27    C     0.13526   0.19233  -0.04316   0.00000  Uani   1.00
C28    C     0.11547   0.21323  -0.07049   0.00000  Uani   1.00
C29    C     0.12805   0.24119  -0.08052   0.00000  Uani   1.00
H30    H     0.14807   0.24956  -0.07145   0.18000  Uiso   1.00
O31    O    -0.12034  -0.16755  -0.03575   0.00000  Uani   1.00
O32    O    -0.16008  -0.20747  -0.03706   0.00000  Uani   1.00
C33    C    -0.13459  -0.19204  -0.04638   0.00000  Uani   1.00
C34    C    -0.11439  -0.21278  -0.07354   0.00000  Uani   1.00
C35    C    -0.12682  -0.24067  -0.08394   0.00000  Uani   1.00
H36    H    -0.14697  -0.24910  -0.07522   0.18000  Uiso   1.00
O37    O     0.12117  -0.03420  -0.16727   0.00000  Uani   1.00
O38    O     0.16108  -0.03511  -0.20704   0.00000  Uani   1.00
C39    C     0.13557  -0.04463  -0.19178   0.00000  Uani   1.00
C40    C     0.11556  -0.07174  -0.21277   0.00000  Uani   1.00
C41    C     0.12814  -0.08191  -0.24067   0.00000  Uani   1.00
H42    H     0.14829  -0.07305  -0.24896   0.18000  Uiso   1.00
O43    O    -0.11865   0.03526  -0.16885   0.00000  Uani   1.00
O44    O    -0.15796   0.03641  -0.20921   0.00000  Uani   1.00
C45    C    -0.13268   0.04583  -0.19350   0.00000  Uani   1.00
C46    C    -0.11237   0.07308  -0.21402   0.00000  Uani   1.00
C47    C    -0.12453   0.08342  -0.24204   0.00000  Uani   1.00
H48    H    -0.14455   0.07462  -0.25069   0.18000  Uiso   1.00
O49    O    -0.03285   0.16856  -0.11975   0.00000  Uani   1.00
O50    O    -0.03331   0.20875  -0.15924   0.00000  Uani   1.00
C51    C    -0.04311   0.19322  -0.13400   0.00000  Uani   1.00
C52    C    -0.07044   0.21400  -0.11407   0.00000  Uani   1.00
C53    C    -0.08047   0.24204  -0.12646   0.00000  Uani   1.00
H54    H    -0.07139   0.25054  -0.14643   0.18000  Uiso   1.00
O55    O     0.03465  -0.16780  -0.12030   0.00000  Uani   1.00
O56    O     0.03570  -0.20775  -0.16003   0.00000  Uani   1.00
C57    C     0.04512  -0.19238  -0.13455   0.00000  Uani   1.00
C58    C     0.07215  -0.21329  -0.11434   0.00000  Uani   1.00
C59    C     0.08236  -0.24125  -0.12676   0.00000  Uani   1.00
H60    H     0.07359  -0.24962  -0.14691   0.18000  Uiso   1.00
O61    O     0.16791  -0.12049  -0.03344   0.00000  Uani   1.00
O62    O     0.20785  -0.16024  -0.03416   0.00000  Uani   1.00
C63    C     0.19252  -0.13480  -0.04376   0.00000  Uani   1.00
C64    C     0.21354  -0.11471  -0.07078   0.00000  Uani   1.00
C65    C     0.24154  -0.12718  -0.08083   0.00000  Uani   1.00
H66    H     0.24988  -0.14730  -0.07193   0.18000  Uiso   1.00
O67    O    -0.16740   0.12071  -0.03520   0.00000  Uani   1.00
O68    O    -0.20732   0.16046  -0.03626   0.00000  Uani   1.00
C69    C    -0.19185   0.13508  -0.04579   0.00000  Uani   1.00
C70    C    -0.21247   0.11516  -0.07325   0.00000  Uani   1.00
C71    C    -0.24031   0.12770  -0.08364   0.00000  Uani   1.00
H72    H    -0.24878   0.14776  -0.07474   0.18000  Uiso   1.00
O73    O     0.03517  -0.11962  -0.16818   0.00000  Uani   1.00
O74    O     0.03623  -0.15911  -0.20837   0.00000  Uani   1.00
C75    C     0.04576  -0.13383  -0.19273   0.00000  Uani   1.00
C76    C     0.07323  -0.11379  -0.21322   0.00000  Uani   1.00
C77    C     0.08361  -0.12614  -0.24114   0.00000  Uani   1.00
H78    H     0.07471  -0.14614  -0.24974   0.18000  Uiso   1.00
O79    O    -0.03266   0.12067  -0.16794   0.00000  Uani   1.00
O80    O    -0.03311   0.16042  -0.20788   0.00000  Uani   1.00
C81    C    -0.04287   0.13504  -0.19255   0.00000  Uani   1.00
C82    C    -0.07003   0.11513  -0.21357   0.00000  Uani   1.00
C83    C    -0.08000   0.12765  -0.24157   0.00000  Uani   1.00
H84    H    -0.07097   0.14771  -0.24991   0.18000  Uiso   1.00
O85    O    -0.16704   0.03527  -0.12117   0.00000  Uani   1.00
O86    O    -0.20681   0.03643  -0.16108   0.00000  Uani   1.00
C87    C    -0.19148   0.04585  -0.13558   0.00000  Uani   1.00
C88    C    -0.21229   0.07310  -0.11557   0.00000  Uani   1.00
C89    C    -0.24013   0.08346  -0.12816   0.00000  Uani   1.00
H90    H    -0.24848   0.07465  -0.14831   0.18000  Uiso   1.00
O91    O     0.16884  -0.03452  -0.11888   0.00000  Uani   1.00
O92    O     0.20920  -0.03542  -0.15819   0.00000  Uani   1.00
C93    C     0.19349  -0.04501  -0.13298   0.00000  Uani   1.00
C94    C     0.21400  -0.07239  -0.11284   0.00000  Uani   1.00
C95    C     0.24203  -0.08266  -0.12507   0.00000  Uani   1.00
H96    H     0.25068  -0.07373  -0.14503   0.18000  Uiso   1.00
O97    O     0.11971  -0.16837  -0.03396   0.00000  Uani   1.00
O98    O     0.15920  -0.20856  -0.03468   0.00000  Uani   1.00
C99    C     0.13396  -0.19296  -0.04438   0.00000  Uani   1.00
C100   C     0.11402  -0.21356  -0.07184   0.00000  Uani   1.00
C101   C     0.12641  -0.24154  -0.08205   0.00000  Uani   1.00
H102   H     0.14637  -0.25010  -0.07303   0.18000  Uiso   1.00
O103   O    -0.11920   0.16858  -0.03469   0.00000  Uani   1.00
O104   O    -0.15867   0.20879  -0.03575   0.00000  Uani   1.00
C105   C    -0.13329   0.19324  -0.04517   0.00000  Uani   1.00
C106   C    -0.11294   0.21401  -0.07219   0.00000  Uani   1.00
C107   C    -0.12518   0.24205  -0.08242   0.00000  Uani   1.00
H108   H    -0.14527   0.25056  -0.07364   0.18000  Uiso   1.00
O109   O    -0.11888  -0.03338  -0.16907   0.00000  Uani   1.00
O110   O    -0.15820  -0.03402  -0.20943   0.00000  Uani   1.00
C111   C    -0.13299  -0.04371  -0.19378   0.00000  Uani   1.00
C112   C    -0.11285  -0.07096  -0.21447   0.00000  Uani   1.00
C113   C    -0.12509  -0.08105  -0.24256   0.00000  Uani   1.00
H114   H    -0.14505  -0.07205  -0.25116   0.18000  Uiso   1.00
O115   O     0.12140   0.03444  -0.16705   0.00000  Uani   1.00
O116   O     0.16132   0.03532  -0.20682   0.00000  Uani   1.00
C117   C     0.13587   0.04492  -0.19149   0.00000  Uani   1.00
C118   C     0.11605   0.07230  -0.21231   0.00000  Uani   1.00
C119   C     0.12870   0.08256  -0.24015   0.00000  Uani   1.00
H120   H     0.14879   0.07362  -0.24850   0.18000  Uiso   1.00
O121   O    -0.03399  -0.16757  -0.12081   0.00000  Uani   1.00
O122   O    -0.03472  -0.20751  -0.16056   0.00000  Uani   1.00
C123   C    -0.04442  -0.19207  -0.13522   0.00000  Uani   1.00
C124   C    -0.07188  -0.21279  -0.11542   0.00000  Uani   1.00
C125   C    -0.08210  -0.24069  -0.12799   0.00000  Uani   1.00
H126   H    -0.07308  -0.24912  -0.14801   0.18000  Uiso   1.00
O127   O     0.03579   0.16832  -0.11924   0.00000  Uani   1.00
O128   O     0.03711   0.20851  -0.15872   0.00000  Uani   1.00
C129   C     0.04643   0.19291  -0.13333   0.00000  Uani   1.00
C130   C     0.07359   0.21351  -0.11299   0.00000  Uani   1.00
C131   C     0.08400   0.24148  -0.12524   0.00000  Uani   1.00
H132   H     0.07528   0.25004  -0.14533   0.18000  Uiso   1.00
O133   O    -0.16821  -0.11935  -0.03596   0.00000  Uani   1.00
O134   O    -0.20840  -0.15882  -0.03727   0.00000  Uani   1.00
C135   C    -0.19276  -0.13348  -0.04664   0.00000  Uani   1.00
C136   C    -0.21324  -0.11326  -0.07397   0.00000  Uani   1.00
C137   C    -0.24117  -0.12553  -0.08444   0.00000  Uani   1.00
H138   H    -0.24978  -0.14559  -0.07567   0.18000  Uiso   1.00
O139   O     0.16872   0.11956  -0.03268   0.00000  Uani   1.00
O140   O     0.20893   0.15904  -0.03315   0.00000  Uani   1.00
C141   C     0.19343   0.13376  -0.04291   0.00000  Uani   1.00
C142   C     0.21432   0.11371  -0.07006   0.00000  Uani   1.00
C143   C     0.24240   0.12605  -0.08003   0.00000  Uani   1.00
H144   H     0.25087   0.14605  -0.07100   0.18000  Uiso   1.00
Cu145  Cu    0.00153   0.14070  -0.13981   0.00000  Uani   1.00
Cu146  Cu    0.00204   0.18784  -0.18666   0.00000  Uani   1.00
Cu147  Cu    0.00057  -0.13982  -0.14070   0.00000  Uani   1.00
Cu148  Cu    0.00077  -0.18667  -0.18784   0.00000  Uani   1.00
Cu149  Cu    0.14130  -0.00004  -0.13921   0.00000  Uani   1.00
Cu150  Cu    0.18865  -0.00005  -0.18585   0.00000  Uani   1.00
Cu151  Cu   -0.13920   0.00092  -0.14130   0.00000  Uani   1.00
Cu152  Cu   -0.18585   0.00123  -0.18865   0.00000  Uani   1.00
C153   C     0.08970   0.08825  -0.19575   0.00000  Uani   1.00
H154   H     0.08287   0.08155  -0.17428   0.14400  Uiso   1.00
X155   C     0.11048   0.10862  -0.25809   0.00000  Uani   1.00
C156   C    -0.08675  -0.08701  -0.19762   0.00000  Uani   1.00
H157   H    -0.08024  -0.08045  -0.17601   0.14400  Uiso   1.00
X158   C    -0.10660  -0.10699  -0.26039   0.00000  Uani   1.00
C159   C     0.19764   0.08754  -0.08618   0.00000  Uani   1.00
H160   H     0.17603   0.08094  -0.07971   0.14400  Uiso   1.00
X161   C     0.26042   0.10763  -0.10589   0.00000  Uani   1.00
C162   C    -0.19632  -0.08698  -0.08968   0.00000  Uani   1.00
H163   H    -0.17482  -0.08043  -0.08285   0.14400  Uiso   1.00
X164   C    -0.25880  -0.10695  -0.11045   0.00000  Uani   1.00
C165   C     0.08925   0.19666  -0.08665   0.00000  Uani   1.00
H166   H     0.08248   0.17513  -0.08012   0.14400  Uiso   1.00
X167   C     0.10986   0.25922  -0.10654   0.00000  Uani   1.00
C168   C    -0.08794  -0.19611  -0.08921   0.00000  Uani   1.00
H169   H    -0.08127  -0.17462  -0.08244   0.14400  Uiso   1.00
X170   C    -0.10824  -0.25854  -0.10980   0.00000  Uani   1.00
C171   C     0.08910  -0.08761  -0.19631   0.00000  Uani   1.00
H172   H     0.08232  -0.08101  -0.17480   0.14400  Uiso   1.00
X173   C     0.10974  -0.10773  -0.25877   0.00000  Uani   1.00
C174   C    -0.08616   0.08885  -0.19706   0.00000  Uani   1.00
H175   H    -0.07969   0.08211  -0.17550   0.14400  Uiso   1.00
X176   C    -0.10586   0.10935  -0.25971   0.00000  Uani   1.00
C177   C    -0.08660   0.19727  -0.08796   0.00000  Uani   1.00
H178   H    -0.08008   0.17569  -0.08133   0.14400  Uiso   1.00
X179   C    -0.10648   0.25995  -0.10816   0.00000  Uani   1.00
C180   C     0.08792  -0.19671  -0.08789   0.00000  Uani   1.00
H181   H     0.08129  -0.17518  -0.08123   0.14400  Uiso   1.00
X182   C     0.10810  -0.25928  -0.10818   0.00000  Uani   1.00
C183   C     0.19704  -0.08833  -0.08674   0.00000  Uani   1.00
H184   H     0.17548  -0.08162  -0.08023   0.14400  Uiso   1.00
X185   C     0.25968  -0.10872  -0.10657   0.00000  Uani   1.00
C186   C    -0.19573   0.08888  -0.08912   0.00000  Uani   1.00
H187   H    -0.17426   0.08213  -0.08233   0.14400  Uiso   1.00
X188   C    -0.25806   0.10940  -0.10977   0.00000  Uani   1.00
O189   O    -0.03517   0.11962   0.16818   0.00000  Uani   1.00
O190   O    -0.03623   0.15911   0.20837   0.00000  Uani   1.00
C191   C    -0.04576   0.13383   0.19273   0.00000  Uani   1.00
C192   C    -0.07323   0.11379   0.21322   0.00000  Uani   1.00
C193   C    -0.08361   0.12614   0.24114   0.00000  Uani   1.00
H194   H    -0.07471   0.14614   0.24974   0.18000  Uiso   1.00
O195   O     0.03266  -0.12067   0.16794   0.00000  Uani   1.00
O196   O     0.03311  -0.16042   0.20788   0.00000  Uani   1.00
C197   C     0.04287  -0.13504   0.19255   0.00000  Uani   1.00
C198   C     0.07003  -0.11513   0.21357   0.00000  Uani   1.00
C199   C     0.08000  -0.12765   0.24157   0.00000  Uani   1.00
H200   H     0.07097  -0.14771   0.24991   0.18000  Uiso   1.00
O201   O     0.16704  -0.03527   0.12117   0.00000  Uani   1.00
O202   O     0.20681  -0.03643   0.16108   0.00000  Uani   1.00
C203   C     0.19148  -0.04585   0.13558   0.00000  Uani   1.00
C204   C     0.21229  -0.07310   0.11557   0.00000  Uani   1.00
C205   C     0.24013  -0.08346   0.12816   0.00000  Uani   1.00
H206   H     0.24848  -0.07465   0.14831   0.18000  Uiso   1.00
O207   O    -0.16884   0.03452   0.11888   0.00000  Uani   1.00
O208   O    -0.20920   0.03542   0.15819   0.00000  Uani   1.00
C209   C    -0.19349   0.04501   0.13298   0.00000  Uani   1.00
C210   C    -0.21400   0.07239   0.11284   0.00000  Uani   1.00
C211   C    -0.24203   0.08266   0.12507   0.00000  Uani   1.00
H212   H    -0.25068   0.07373   0.14503   0.18000  Uiso   1.00
O213   O    -0.11971   0.16837   0.03396   0.00000  Uani   1.00
O214   O    -0.15920   0.20856   0.03468   0.00000  Uani   1.00
C215   C    -0.13396   0.19296   0.04438   0.00000  Uani   1.00
C216   C    -0.11402   0.21356   0.07184   0.00000  Uani   1.00
C217   C    -0.12641   0.24154   0.08205   0.00000  Uani   1.00
H218   H    -0.14637   0.25010   0.07303   0.18000  Uiso   1.00
O219   O     0.11920  -0.16858   0.03469   0.00000  Uani   1.00
O220   O     0.15867  -0.20879   0.03575   0.00000  Uani   1.00
C221   C     0.13329  -0.19324   0.04517   0.00000  Uani   1.00
C222   C     0.11294  -0.21401   0.07219   0.00000  Uani   1.00
C223   C     0.12518  -0.24205   0.08242   0.00000  Uani   1.00
H224   H     0.14527  -0.25056   0.07364   0.18000  Uiso   1.00
O225   O     0.11888   0.03338   0.16907   0.00000  Uani   1.00
O226   O     0.15820   0.03402   0.20943   0.00000  Uani   1.00
C227   C     0.13299   0.04371   0.19378   0.00000  Uani   1.00
C228   C     0.11285   0.07096   0.21447   0.00000  Uani   1.00
C229   C     0.12509   0.08105   0.24256   0.00000  Uani   1.00
H230   H     0.14505   0.07205   0.25116   0.18000  Uiso   1.00
O231   O    -0.12140  -0.03444   0.16705   0.00000  Uani   1.00
O232   O    -0.16132  -0.03532   0.20682   0.00000  Uani   1.00
C233   C    -0.13587  -0.04492   0.19149   0.00000  Uani   1.00
C234   C    -0.11605  -0.07230   0.21231   0.00000  Uani   1.00
C235   C    -0.12870  -0.08256   0.24015   0.00000  Uani   1.00
H236   H    -0.14879  -0.07362   0.24850   0.18000  Uiso   1.00
O237   O     0.03399   0.16757   0.12081   0.00000  Uani   1.00
O238   O     0.03472   0.20751   0.16056   0.00000  Uani   1.00
C239   C     0.04442   0.19207   0.13522   0.00000  Uani   1.00
C240   C     0.07188   0.21279   0.11542   0.00000  Uani   1.00
C241   C     0.08210   0.24069   0.12799   0.00000  Uani   1.00
H242   H     0.07308   0.24912   0.14801   0.18000  Uiso   1.00
O243   O    -0.03579  -0.16832   0.11924   0.00000  Uani   1.00
O244   O    -0.03711  -0.20851   0.15872   0.00000  Uani   1.00
C245   C    -0.04643  -0.19291   0.13333   0.00000  Uani   1.00
C246   C    -0.07359  -0.21351   0.11299   0.00000  Uani   1.00
C247   C    -0.08400  -0.24148   0.12524   0.00000  Uani   1.00
H248   H    -0.07528  -0.25004   0.14533   0.18000  Uiso   1.00
O249   O     0.16821   0.11935   0.03596   0.00000  Uani   1.00
O250   O     0.20840   0.15882   0.03727   0.00000  Uani   1.00
C251   C     0.19276   0.13348   0.04664   0.00000  Uani   1.00
C252   C     0.21324   0.11326   0.07397   0.00000  Uani   1.00
C253   C     0.24117   0.12553   0.08444   0.00000  Uani   1.00
H254   H     0.24978   0.14559   0.07567   0.18000  Uiso   1.00
O255   O    -0.16872  -0.11956   0.03268   0.00000  Uani   1.00
O256   O    -0.20893  -0.15904   0.03315   0.00000  Uani   1.00
C257   C    -0.19343  -0.13376   0.04291   0.00000  Uani   1.00
C258   C    -0.21432  -0.11371   0.07006   0.00000  Uani   1.00
C259   C    -0.24240  -0.12605   0.08003   0.00000  Uani   1.00
H260   H    -0.25087  -0.14605   0.07100   0.18000  Uiso   1.00
O261   O    -0.03599  -0.12044   0.16742   0.00000  Uani   1.00
O262   O    -0.03731  -0.16017   0.20736   0.00000  Uani   1.00
C263   C    -0.04667  -0.13473   0.19188   0.00000  Uani   1.00
C264   C    -0.07400  -0.11463   0.21249   0.00000  Uani   1.00
C265   C    -0.08447  -0.12709   0.24034   0.00000  Uani   1.00
H266   H    -0.07570  -0.14721   0.24882   0.18000  Uiso   1.00
O267   O     0.03347   0.11938   0.16870   0.00000  Uani   1.00
O268   O     0.03420   0.15887   0.20889   0.00000  Uani   1.00
C269   C     0.04378   0.13352   0.19340   0.00000  Uani   1.00
C270   C     0.07080   0.11329   0.21429   0.00000  Uani   1.00
C271   C     0.08086   0.12558   0.24237   0.00000  Uani   1.00
H272   H     0.07196   0.14564   0.25084   0.18000  Uiso   1.00
O273   O    -0.16907  -0.03412   0.11866   0.00000  Uani   1.00
O274   O    -0.20944  -0.03500   0.15797   0.00000  Uani   1.00
C275   C    -0.19380  -0.04454   0.13270   0.00000  Uani   1.00
C276   C    -0.21449  -0.07165   0.11238   0.00000  Uani   1.00
C277   C    -0.24258  -0.08181   0.12455   0.00000  Uani   1.00
H278   H    -0.25118  -0.07294   0.14457   0.18000  Uiso   1.00
O279   O     0.16728   0.03337   0.12139   0.00000  Uani   1.00
O280   O     0.20705   0.03400   0.16131   0.00000  Uani   1.00
C281   C     0.19179   0.04369   0.13586   0.00000  Uani   1.00
C282   C     0.21278   0.07093   0.11603   0.00000  Uani   1.00
C283   C     0.24069   0.08101   0.12868   0.00000  Uani   1.00
H284   H     0.24898   0.07202   0.14877   0.18000  Uiso   1.00
O285   O    -0.12085  -0.16776   0.03289   0.00000  Uani   1.00
O286   O    -0.16061  -0.20770   0.03336   0.00000  Uani   1.00
C287   C    -0.13526  -0.19233   0.04316   0.00000  Uani   1.00
C288   C    -0.11547  -0.21323   0.07049   0.00000  Uani   1.00
C289   C    -0.12805  -0.24119   0.08052   0.00000  Uani   1.00
H290   H    -0.14807  -0.24956   0.07145   0.18000  Uiso   1.00
O291   O     0.12034   0.16755   0.03575   0.00000  Uani   1.00
O292   O     0.16008   0.20747   0.03706   0.00000  Uani   1.00
C293   C     0.13459   0.19204   0.04638   0.00000  Uani   1.00
C294   C     0.11439   0.21278   0.07354   0.00000  Uani   1.00
C295   C     0.12682   0.24067   0.08394   0.00000  Uani   1.00
H296   H     0.14697   0.24910   0.07522   0.18000  Uiso   1.00
O297   O    -0.12117   0.03420   0.16727   0.00000  Uani   1.00
O298   O    -0.16108   0.03511   0.20704   0.00000  Uani   1.00
C299   C    -0.13557   0.04463   0.19178   0.00000  Uani   1.00
C300   C    -0.11556   0.07174   0.21277   0.00000  Uani   1.00
C301   C    -0.12814   0.08191   0.24067   0.00000  Uani   1.00
H302   H    -0.14829   0.07305   0.24896   0.18000  Uiso   1.00
O303   O     0.11865  -0.03526   0.16885   0.00000  Uani   1.00
O304   O     0.15796  -0.03641   0.20921   0.00000  Uani   1.00
C305   C     0.13268  -0.04583   0.19350   0.00000  Uani   1.00
C306   C     0.11237  -0.07308   0.21402   0.00000  Uani   1.00
C307   C     0.12453  -0.08342   0.24204   0.00000  Uani   1.00
H308   H     0.14455  -0.07462   0.25069   0.18000  Uiso   1.00
O309   O     0.03285  -0.16856   0.11975   0.00000  Uani   1.00
O310   O     0.03331  -0.20875   0.15924   0.00000  Uani   1.00
C311   C     0.04311  -0.19322   0.13400   0.00000  Uani   1.00
C312   C     0.07044  -0.21400   0.11407   0.00000  Uani   1.00
C313   C     0.08047  -0.24204   0.12646   0.00000  Uani   1.00
H314   H     0.07139  -0.25054   0.14643   0.18000  Uiso   1.00
O315   O    -0.03465   0.16780   0.12030   0.00000  Uani   1.00
O316   O    -0.03570   0.20775   0.16003   0.00000  Uani   1.00
C317   C    -0.04512   0.19238   0.13455   0.00000  Uani   1.00
C318   C    -0.07215   0.21329   0.11434   0.00000  Uani   1.00
C319   C    -0.08236   0.24125   0.12676   0.00000  Uani   1.00
H320   H    -0.07359   0.24962   0.14691   0.18000  Uiso   1.00
O321   O    -0.16791   0.12049   0.03344   0.00000  Uani   1.00
O322   O    -0.20785   0.16024   0.03416   0.00000  Uani   1.00
C323   C    -0.19252   0.13480   0.04376   0.00000  Uani   1.00
C324   C    -0.21354   0.11471   0.07078   0.00000  Uani   1.00
C325   C    -0.24154   0.12718   0.08083   0.00000  Uani   1.00
H326   H    -0.24988   0.14730   0.07193   0.18000  Uiso   1.00
O327   O     0.16740  -0.12071   0.03520   0.00000  Uani   1.00
O328   O     0.20732  -0.16046   0.03626   0.00000  Uani   1.00
C329   C     0.19185  -0.13508   0.04579   0.00000  Uani   1.00
C330   C     0.21247  -0.11516   0.07325   0.00000  Uani   1.00
C331   C     0.24031  -0.12770   0.08364   0.00000  Uani   1.00
H332   H     0.24878  -0.14776   0.07474   0.18000  Uiso   1.00
Cu333  Cu   -0.00057   0.13982   0.14070   0.00000  Uani   1.00
Cu334  Cu   -0.00077   0.18667   0.18784   0.00000  Uani   1.00
Cu335  Cu   -0.00153  -0.14070   0.13981   0.00000  Uani   1.00
Cu336  Cu   -0.00204  -0.18784   0.18666   0.00000  Uani   1.00
Cu337  Cu    0.14073   0.13978   0.00149   0.00000  Uani   1.00
Cu338  Cu    0.18788   0.18661   0.00199   0.00000  Uani   1.00
Cu339  Cu   -0.13978   0.14074  -0.00060   0.00000  Uani   1.00
Cu340  Cu   -0.18661   0.18789  -0.00081   0.00000  Uani   1.00
Cu341  Cu    0.13978  -0.14074   0.00060   0.00000  Uani   1.00
Cu342  Cu    0.18661  -0.18789   0.00081   0.00000  Uani   1.00
Cu343  Cu   -0.14073  -0.13978  -0.00149   0.00000  Uani   1.00
Cu344  Cu   -0.18788  -0.18661  -0.00199   0.00000  Uani   1.00
Cu345  Cu    0.13920  -0.00092   0.14130   0.00000  Uani   1.00
Cu346  Cu    0.18585  -0.00123   0.18865   0.00000  Uani   1.00
Cu347  Cu   -0.14130   0.00004   0.13921   0.00000  Uani   1.00
Cu348  Cu   -0.18865   0.00005   0.18585   0.00000  Uani   1.00
C349   C    -0.08910   0.08761   0.19631   0.00000  Uani   1.00
H350   H    -0.08232   0.08101   0.17480   0.14400  Uiso   1.00
X351   C    -0.10974   0.10773   0.25877   0.00000  Uani   1.00
C352   C     0.08616  -0.08885   0.19706   0.00000  Uani   1.00
H353   H     0.07969  -0.08211   0.17550   0.14400  Uiso   1.00
X354   C     0.10586  -0.10935   0.25971   0.00000  Uani   1.00
C355   C     0.19573  -0.08888   0.08912   0.00000  Uani   1.00
H356   H     0.17426  -0.08213   0.08233   0.14400  Uiso   1.00
X357   C     0.25806  -0.10940   0.10977   0.00000  Uani   1.00
C358   C    -0.19704   0.08833   0.08674   0.00000  Uani   1.00
H359   H    -0.17548   0.08162   0.08023   0.14400  Uiso   1.00
X360   C    -0.25968   0.10872   0.10657   0.00000  Uani   1.00
C361   C    -0.08792   0.19671   0.08789   0.00000  Uani   1.00
H362   H    -0.08129   0.17518   0.08123   0.14400  Uiso   1.00
X363   C    -0.10810   0.25928   0.10818   0.00000  Uani   1.00
C364   C     0.08660  -0.19727   0.08796   0.00000  Uani   1.00
H365   H     0.08008  -0.17569   0.08133   0.14400  Uiso   1.00
X366   C     0.10648  -0.25995   0.10816   0.00000  Uani   1.00
C367   C     0.08675   0.08701   0.19762   0.00000  Uani   1.00
H368   H     0.08024   0.08045   0.17601   0.14400  Uiso   1.00
X369   C     0.10660   0.10699   0.26039   0.00000  Uani   1.00
C370   C    -0.08970  -0.08825   0.19575   0.00000  Uani   1.00
H371   H    -0.08287  -0.08155   0.17428   0.14400  Uiso   1.00
X372   C    -0.11048  -0.10862   0.25809   0.00000  Uani   1.00
C373   C     0.08794   0.19611   0.08921   0.00000  Uani   1.00
H374   H     0.08127   0.17462   0.08244   0.14400  Uiso   1.00
X375   C     0.10824   0.25854   0.10980   0.00000  Uani   1.00
C376   C    -0.08925  -0.19666   0.08665   0.00000  Uani   1.00
H377   H    -0.08248  -0.17513   0.08012   0.14400  Uiso   1.00
X378   C    -0.10986  -0.25922   0.10654   0.00000  Uani   1.00
C379   C     0.19632   0.08698   0.08968   0.00000  Uani   1.00
H380   H     0.17482   0.08043   0.08285   0.14400  Uiso   1.00
X381   C     0.25880   0.10695   0.11045   0.00000  Uani   1.00
C382   C    -0.19764  -0.08754   0.08618   0.00000  Uani   1.00
H383   H    -0.17603  -0.08094   0.07971   0.14400  Uiso   1.00
X384   C    -0.26042  -0.10763   0.10589   0.00000  Uani   1.00
Li385  O    -0.10660   0.00003   0.10502   0.00000  Uiso   1.00
Li386  O    -0.22336   0.00006   0.22005   0.00000  Uiso   1.00
Li387  O     0.10660  -0.00003  -0.10502   0.00000  Uiso   1.00
Li388  O     0.22336  -0.00006  -0.22005   0.00000  Uiso   1.00
Li389  O     0.10502  -0.00069   0.10660   0.00000  Uiso   1.00
Li390  O     0.22005  -0.00145   0.22336   0.00000  Uiso   1.00
Li391  O    -0.10502   0.00069  -0.10660   0.00000  Uiso   1.00
Li392  O    -0.22005   0.00145  -0.22336   0.00000  Uiso   1.00
Li393  O     0.00115   0.10614  -0.10547   0.00000  Uiso   1.00
Li394  O    -0.00115  -0.10614   0.10547   0.00000  Uiso   1.00
Li395  O    -0.00241  -0.22241   0.22100   0.00000  Uiso   1.00
Li396  O     0.00241   0.22241  -0.22100   0.00000  Uiso   1.00
Li397  O    -0.22095   0.22247  -0.00096   0.00000  Uiso   1.00
Li398  O     0.22095  -0.22247   0.00096   0.00000  Uiso   1.00
Li399  O     0.10545  -0.10617   0.00046   0.00000  Uiso   1.00
Li400  O    -0.10545   0.10617  -0.00046   0.00000  Uiso   1.00
Li401  O     0.22246   0.22095   0.00236   0.00000  Uiso   1.00
Li402  O     0.10617   0.10545   0.00113   0.00000  Uiso   1.00
Li403  O    -0.10617  -0.10545  -0.00113   0.00000  Uiso   1.00
Li404  O    -0.22246  -0.22095  -0.00236   0.00000  Uiso   1.00
Li405  O    -0.00091   0.22101   0.22241   0.00000  Uiso   1.00
Li406  O     0.00091  -0.22101  -0.22241   0.00000  Uiso   1.00
Li407  O     0.00043  -0.10548  -0.10614   0.00000  Uiso   1.00
Li408  O    -0.00043   0.10548   0.10614   0.00000  Uiso   1.00
loop_
_geom_bond_atom_site_label_1
_geom_bond_atom_site_label_2
_geom_bond_distance
_geom_bond_site_symmetry_2
_ccdc_geom_bond_type
O1     Cu145   1.943   .     S
O1     C3      1.211   .     D
O2     Cu146   1.975   .     S
O2     C3      1.249   .     S
C3     C4      1.588   .     S
C4     C153    1.399   .     D
C4     C5      1.290   .     S
C5     H6      0.941   .     S
C5     X155    1.460   .     D
O7     Cu147   1.943   .     S
O7     C9      1.211   .     D
O8     Cu148   1.975   .     S
O8     C9      1.249   .     S
C9     C10     1.588   .     S
C10    C156    1.399   .     D
C10    C11     1.290   .     S
C11    H12     0.941   .     S
C11    X158    1.460   .     D
O13    Cu149   1.943   .     S
O13    C15     1.211   .     D
O14    Cu150   1.975   .     S
O14    C15     1.248   .     S
C15    C16     1.588   .     S
C16    C159    1.399   .     D
C16    C17     1.290   .     S
C17    H18     0.941   .     S
C17    X161    1.460   .     D
O19    Cu151   1.943   .     S
O19    C21     1.211   .     D
O20    Cu152   1.975   .     S
O20    C21     1.249   .     S
C21    C22     1.588   .     S
C22    C162    1.399   .     D
C22    C23     1.290   .     S
C23    H24     0.941   .     S
C23    X164    1.461   .     D
O25    C27     1.211   .     D
O25    Cu337   1.943   .     S
O26    C27     1.249   .     S
O26    Cu338   1.975   .     S
C27    C28     1.588   .     S
C28    C165    1.399   .     D
C28    C29     1.290   .     S
C29    H30     0.941   .     S
C29    X167    1.460   .     D
O31    C33     1.211   .     D
O31    Cu343   1.943   .     S
O32    C33     1.249   .     S
O32    Cu344   1.975   .     S
C33    C34     1.588   .     S
C34    C168    1.399   .     D
C34    C35     1.290   .     S
C35    H36     0.941   .     S
C35    X170    1.461   .     D
O37    Cu149   1.943   .     S
O37    C39     1.211   .     D
O38    Cu150   1.975   .     S
O38    C39     1.249   .     S
C39    C40     1.588   .     S
C40    C171    1.399   .     D
C40    C41     1.290   .     S
C41    H42     0.941   .     S
C41    X173    1.460   .     D
O43    Cu151   1.943   .     S
O43    C45     1.211   .     D
O44    Cu152   1.975   .     S
O44    C45     1.249   .     S
C45    C46     1.588   .     S
C46    C174    1.399   .     D
C46    C47     1.290   .     S
C47    H48     0.941   .     S
C47    X176    1.461   .     D
O49    Cu145   1.943   .     S
O49    C51     1.211   .     D
O50    Cu146   1.975   .     S
O50    C51     1.249   .     S
C51    C52     1.588   .     S
C52    C177    1.399   .     D
C52    C53     1.290   .     S
C53    H54     0.941   .     S
C53    X179    1.460   .     D
O55    Cu147   1.943   .     S
O55    C57     1.211   .     D
O56    Cu148   1.975   .     S
O56    C57     1.248   .     S
C57    C58     1.588   .     S
C58    C180    1.399   .     D
C58    C59     1.290   .     S
C59    H60     0.941   .     S
C59    X182    1.460   .     D
O61    C63     1.211   .     D
O61    Cu341   1.943   .     S
O62    C63     1.249   .     S
O62    Cu342   1.975   .     S
C63    C64     1.588   .     S
C64    C183    1.399   .     D
C64    C65     1.290   .     S
C65    H66     0.941   .     S
C65    X185    1.460   .     D
O67    C69     1.211   .     D
O67    Cu339   1.944   .     S
O68    C69     1.249   .     S
O68    Cu340   1.975   .     S
C69    C70     1.588   .     S
C70    C186    1.399   .     D
C70    C71     1.290   .     S
C71    H72     0.941   .     S
C71    X188    1.460   .     D
O73    Cu147   1.943   .     S
O73    C75     1.211   .     D
O74    Cu148   1.975   .     S
O74    C75     1.249   .     S
C75    C76     1.588   .     S
C76    C171    1.399   .     S
C76    C77     1.290   .     D
C77    H78     0.941   .     S
C77    X173    1.460   .     S
O79    Cu145   1.944   .     S
O79    C81     1.211   .     D
O80    Cu146   1.975   .     S
O80    C81     1.249   .     S
C81    C82     1.588   .     S
C82    C174    1.399   .     S
C82    C83     1.290   .     D
C83    H84     0.941   .     S
C83    X176    1.460   .     S
O85    Cu151   1.943   .     S
O85    C87     1.211   .     D
O86    Cu152   1.975   .     S
O86    C87     1.248   .     S
C87    C88     1.588   .     S
C88    C186    1.399   .     S
C88    C89     1.291   .     D
C89    H90     0.941   .     S
C89    X188    1.460   .     S
O91    Cu149   1.943   .     S
O91    C93     1.211   .     D
O92    Cu150   1.975   .     S
O92    C93     1.249   .     S
C93    C94     1.588   .     S
C94    C183    1.399   .     S
C94    C95     1.290   .     D
C95    H96     0.941   .     S
C95    X185    1.460   .     S
O97    C99     1.211   .     D
O97    Cu341   1.943   .     S
O98    C99     1.249   .     S
O98    Cu342   1.975   .     S
C99    C100    1.588   .     S
C100   C180    1.399   .     S
C100   C101    1.290   .     D
C101   H102    0.941   .     S
C101   X182    1.460   .     S
O103   C105    1.211   .     D
O103   Cu339   1.943   .     S
O104   C105    1.249   .     S
O104   Cu340   1.975   .     S
C105   C106    1.588   .     S
C106   C177    1.399   .     S
C106   C107    1.290   .     D
C107   H108    0.941   .     S
C107   X179    1.460   .     S
O109   Cu151   1.943   .     S
O109   C111    1.211   .     D
O110   Cu152   1.975   .     S
O110   C111    1.249   .     S
C111   C112    1.588   .     S
C112   C156    1.399   .     S
C112   C113    1.290   .     D
C113   H114    0.941   .     S
C113   X158    1.460   .     S
O115   Cu149   1.943   .     S
O115   C117    1.211   .     D
O116   Cu150   1.975   .     S
O116   C117    1.249   .     S
C117   C118    1.588   .     S
C118   C153    1.399   .     S
C118   C119    1.290   .     D
C119   H120    0.941   .     S
C119   X155    1.460   .     S
O121   Cu147   1.943   .     S
O121   C123    1.211   .     D
O122   Cu148   1.975   .     S
O122   C123    1.249   .     S
C123   C124    1.588   .     S
C124   C168    1.399   .     S
C124   C125    1.290   .     D
C125   H126    0.941   .     S
C125   X170    1.460   .     S
O127   Cu145   1.943   .     S
O127   C129    1.211   .     D
O128   Cu146   1.975   .     S
O128   C129    1.249   .     S
C129   C130    1.588   .     S
C130   C165    1.399   .     S
C130   C131    1.290   .     D
C131   H132    0.941   .     S
C131   X167    1.460   .     S
O133   C135    1.211   .     D
O133   Cu343   1.943   .     S
O134   C135    1.249   .     S
O134   Cu344   1.975   .     S
C135   C136    1.588   .     S
C136   C162    1.399   .     S
C136   C137    1.290   .     D
C137   H138    0.941   .     S
C137   X164    1.460   .     S
O139   C141    1.211   .     D
O139   Cu337   1.943   .     S
O140   C141    1.249   .     S
O140   Cu338   1.975   .     S
C141   C142    1.588   .     S
C142   C159    1.399   .     S
C142   C143    1.290   .     D
C143   H144    0.941   .     S
C143   X161    1.460   .     S
Cu145  Cu146   2.659   .     S
Cu145  Li393   1.949   .     S
Cu146  Li396   1.949   .     S
Cu147  Cu148   2.658   .     S
Cu147  Li407   1.949   .     S
Cu148  Li406   1.949   .     S
Cu149  Cu150   2.659   .     S
Cu149  Li387   1.949   .     S
Cu150  Li388   1.949   .     S
Cu151  Cu152   2.659   .     S
Cu151  Li391   1.948   .     S
Cu152  Li392   1.949   .     S
C153   H154    0.940   .     S
C156   H157    0.940   .     S
C159   H160    0.940   .     S
C162   H163    0.940   .     S
C165   H166    0.940   .     S
C168   H169    0.940   .     S
C171   H172    0.940   .     S
C174   H175    0.940   .     S
C177   H178    0.940   .     S
C180   H181    0.940   .     S
C183   H184    0.940   .     S
C186   H187    0.940   .     S
O189   Cu333   1.943   .     S
O189   C191    1.211   .     D
O190   Cu334   1.975   .     S
O190   C191    1.249   .     S
C191   C192    1.588   .     S
C192   C349    1.399   .     D
C192   C193    1.290   .     S
C193   H194    0.941   .     S
C193   X351    1.460   .     D
O195   Cu335   1.944   .     S
O195   C197    1.211   .     D
O196   Cu336   1.975   .     S
O196   C197    1.249   .     S
C197   C198    1.588   .     S
C198   C352    1.399   .     D
C198   C199    1.290   .     S
C199   H200    0.941   .     S
C199   X354    1.460   .     D
O201   Cu345   1.943   .     S
O201   C203    1.211   .     D
O202   Cu346   1.975   .     S
O202   C203    1.248   .     S
C203   C204    1.588   .     S
C204   C355    1.399   .     D
C204   C205    1.291   .     S
C205   H206    0.941   .     S
C205   X357    1.460   .     D
O207   Cu347   1.943   .     S
O207   C209    1.211   .     D
O208   Cu348   1.975   .     S
O208   C209    1.249   .     S
C209   C210    1.588   .     S
C210   C358    1.399   .     D
C210   C211    1.290   .     S
C211   H212    0.941   .     S
C211   X360    1.460   .     D
O213   Cu339   1.943   .     S
O213   C215    1.211   .     D
O214   Cu340   1.975   .     S
O214   C215    1.249   .     S
C215   C216    1.588   .     S
C216   C361    1.399   .     D
C216   C217    1.290   .     S
C217   H218    0.941   .     S
C217   X363    1.460   .     D
O219   Cu341   1.943   .     S
O219   C221    1.211   .     D
O220   Cu342   1.975   .     S
O220   C221    1.249   .     S
C221   C222    1.588   .     S
C222   C364    1.399   .     D
C222   C223    1.290   .     S
C223   H224    0.941   .     S
C223   X366    1.460   .     D
O225   Cu345   1.943   .     S
O225   C227    1.211   .     D
O226   Cu346   1.975   .     S
O226   C227    1.249   .     S
C227   C228    1.588   .     S
C228   C367    1.399   .     D
C228   C229    1.290   .     S
C229   H230    0.941   .     S
C229   X369    1.460   .     D
O231   Cu347   1.943   .     S
O231   C233    1.211   .     D
O232   Cu348   1.975   .     S
O232   C233    1.249   .     S
C233   C234    1.588   .     S
C234   C370    1.399   .     D
C234   C235    1.290   .     S
C235   H236    0.941   .     S
C235   X372    1.460   .     D
O237   Cu333   1.943   .     S
O237   C239    1.211   .     D
O238   Cu334   1.975   .     S
O238   C239    1.249   .     S
C239   C240    1.588   .     S
C240   C373    1.399   .     D
C240   C241    1.290   .     S
C241   H242    0.941   .     S
C241   X375    1.460   .     D
O243   Cu335   1.943   .     S
O243   C245    1.211   .     D
O244   Cu336   1.975   .     S
O244   C245    1.249   .     S
C245   C246    1.588   .     S
C246   C376    1.399   .     D
C246   C247    1.290   .     S
C247   H248    0.941   .     S
C247   X378    1.460   .     D
O249   Cu337   1.943   .     S
O249   C251    1.211   .     D
O250   Cu338   1.975   .     S
O250   C251    1.249   .     S
C251   C252    1.588   .     S
C252   C379    1.399   .     D
C252   C253    1.290   .     S
C253   H254    0.941   .     S
C253   X381    1.460   .     D
O255   Cu343   1.943   .     S
O255   C257    1.211   .     D
O256   Cu344   1.975   .     S
O256   C257    1.249   .     S
C257   C258    1.588   .     S
C258   C382    1.399   .     D
C258   C259    1.290   .     S
C259   H260    0.941   .     S
C259   X384    1.460   .     D
O261   Cu335   1.943   .     S
O261   C263    1.211   .     D
O262   Cu336   1.975   .     S
O262   C263    1.249   .     S
C263   C264    1.588   .     S
C264   C370    1.399   .     S
C264   C265    1.290   .     D
C265   H266    0.941   .     S
C265   X372    1.460   .     S
O267   Cu333   1.943   .     S
O267   C269    1.211   .     D
O268   Cu334   1.975   .     S
O268   C269    1.249   .     S
C269   C270    1.588   .     S
C270   C367    1.399   .     S
C270   C271    1.290   .     D
C271   H272    0.941   .     S
C271   X369    1.460   .     S
O273   Cu347   1.943   .     S
O273   C275    1.211   .     D
O274   Cu348   1.975   .     S
O274   C275    1.248   .     S
C275   C276    1.588   .     S
C276   C382    1.399   .     S
C276   C277    1.290   .     D
C277   H278    0.941   .     S
C277   X384    1.460   .     S
O279   Cu345   1.943   .     S
O279   C281    1.211   .     D
O280   Cu346   1.975   .     S
O280   C281    1.249   .     S
C281   C282    1.588   .     S
C282   C379    1.399   .     S
C282   C283    1.290   .     D
C283   H284    0.941   .     S
C283   X381    1.461   .     S
O285   Cu343   1.943   .     S
O285   C287    1.211   .     D
O286   Cu344   1.975   .     S
O286   C287    1.249   .     S
C287   C288    1.588   .     S
C288   C376    1.399   .     S
C288   C289    1.290   .     D
C289   H290    0.941   .     S
C289   X378    1.460   .     S
O291   Cu337   1.943   .     S
O291   C293    1.211   .     D
O292   Cu338   1.975   .     S
O292   C293    1.249   .     S
C293   C294    1.588   .     S
C294   C373    1.399   .     S
C294   C295    1.290   .     D
C295   H296    0.941   .     S
C295   X375    1.461   .     S
O297   Cu347   1.943   .     S
O297   C299    1.211   .     D
O298   Cu348   1.975   .     S
O298   C299    1.249   .     S
C299   C300    1.588   .     S
C300   C349    1.399   .     S
C300   C301    1.290   .     D
C301   H302    0.941   .     S
C301   X351    1.460   .     S
O303   Cu345   1.943   .     S
O303   C305    1.211   .     D
O304   Cu346   1.975   .     S
O304   C305    1.249   .     S
C305   C306    1.588   .     S
C306   C352    1.399   .     S
C306   C307    1.290   .     D
C307   H308    0.941   .     S
C307   X354    1.461   .     S
O309   Cu335   1.943   .     S
O309   C311    1.211   .     D
O310   Cu336   1.975   .     S
O310   C311    1.249   .     S
C311   C312    1.588   .     S
C312   C364    1.399   .     S
C312   C313    1.290   .     D
C313   H314    0.941   .     S
C313   X366    1.460   .     S
O315   Cu333   1.943   .     S
O315   C317    1.211   .     D
O316   Cu334   1.975   .     S
O316   C317    1.248   .     S
C317   C318    1.588   .     S
C318   C361    1.399   .     S
C318   C319    1.290   .     D
C319   H320    0.941   .     S
C319   X363    1.460   .     S
O321   Cu339   1.943   .     S
O321   C323    1.211   .     D
O322   Cu340   1.975   .     S
O322   C323    1.249   .     S
C323   C324    1.588   .     S
C324   C358    1.399   .     S
C324   C325    1.290   .     D
C325   H326    0.941   .     S
C325   X360    1.460   .     S
O327   Cu341   1.944   .     S
O327   C329    1.211   .     D
O328   Cu342   1.975   .     S
O328   C329    1.249   .     S
C329   C330    1.588   .     S
C330   C355    1.399   .     S
C330   C331    1.290   .     D
C331   H332    0.941   .     S
C331   X357    1.460   .     S
Cu333  Cu334   2.658   .     S
Cu333  Li408   1.949   .     S
Cu334  Li405   1.949   .     S
Cu335  Cu336   2.659   .     S
Cu335  Li394   1.949   .     S
Cu336  Li395   1.949   .     S
Cu337  Cu338   2.658   .     S
Cu337  Li402   1.949   .     S
Cu338  Li401   1.949   .     S
Cu339  Cu340   2.658   .     S
Cu339  Li400   1.949   .     S
Cu340  Li397   1.949   .     S
Cu341  Cu342   2.658   .     S
Cu341  Li399   1.949   .     S
Cu342  Li398   1.949   .     S
Cu343  Cu344   2.658   .     S
Cu343  Li403   1.949   .     S
Cu344  Li404   1.949   .     S
Cu345  Cu346   2.659   .     S
Cu345  Li389   1.948   .     S
Cu346  Li390   1.949   .     S
Cu347  Cu348   2.659   .     S
Cu347  Li385   1.949   .     S
Cu348  Li386   1.949   .     S
C349   H350    0.940   .     S
C352   H353    0.940   .     S
C355   H356    0.940   .     S
C358   H359    0.940   .     S
C361   H362    0.940   .     S
C364   H365    0.940   .     S
C367   H368    0.940   .     S
C370   H371    0.940   .     S
C373   H374    0.940   .     S
C376   H377    0.940   .     S
C379   H380    0.940   .     S
C382   H383    0.940   .     S